Program Version,EnergyPlus, Version 23.1.0-87ed9199d4, YMD=2026.04.15 22:26,
   ** Severe  ** <root>[People][SPACE1-1 People 1][mean_radiant_temperature_calculation_type] - "EnclosureAveraged" - Failed to match against any enum values.
   ** Warning ** Version: in IDF="25.1" not the same as expected="23.1"
   **  Fatal  ** Errors occurred on processing input file. Preceding condition(s) cause termination.
   ...Summary of Errors that led to program termination:
   ..... Reference severe error count=1
   ..... Last severe error=<root>[People][SPACE1-1 People 1][mean_radiant_temperature_calculation_type] - "EnclosureAveraged" - Failed to match against any enum values.
   ************* Warning:  Node connection errors not checked - most system input has not been read (see previous warning).
   ************* Fatal error -- final processing.  Program exited before simulations began.  See previous error messages.
   ************* EnergyPlus Warmup Error Summary. During Warmup: 0 Warning; 0 Severe Errors.
   ************* EnergyPlus Sizing Error Summary. During Sizing: 0 Warning; 0 Severe Errors.
   ************* EnergyPlus Terminated--Fatal Error Detected. 1 Warning; 1 Severe Errors; Elapsed Time=00hr 00min  0.04sec
